
     RDKit          3D

 29 31  0  0  0  0  0  0  0  0999 V2000
   -8.0429    9.9662   24.7415 C   0  0  0  0  0  0  0  0  0  0  0  0
   -8.3332    9.1197   23.5187 C   0  0  0  0  0  0  0  0  0  0  0  0
   -8.0457    7.6611   23.8085 C   0  0  0  0  0  0  0  0  0  0  0  0
   -7.6579    9.6948   22.2789 C   0  0  0  0  0  0  0  0  0  0  0  0
   -8.6517   10.0338   21.1344 C   0  0  0  0  0  0  0  0  0  0  0  0
   -8.3486   11.3014   20.4921 N   0  0  0  0  0  0  0  0  0  0  0  0
   -9.4699   12.1394   20.2097 C   0  0  0  0  0  0  0  0  0  0  0  0
  -10.7039   11.6259   20.3765 N   0  0  0  0  0  0  0  0  0  0  0  0
  -11.7558   12.4341   20.3478 C   0  0  0  0  0  0  0  0  0  0  0  0
  -12.9842   11.8458   20.6033 N   0  0  0  0  0  0  0  0  0  0  0  0
  -13.5245   11.3151   21.7726 C   0  0  0  0  0  0  0  0  0  0  0  0
  -12.6977   10.4969   22.5889 C   0  0  0  0  0  0  0  0  0  0  0  0
  -13.2155    9.7636   23.6359 C   0  0  0  0  0  0  0  0  0  0  0  0
  -12.4646    9.4411   24.6834 F   0  0  0  0  0  0  0  0  0  0  0  0
  -14.5830    9.6035   23.7920 C   0  0  0  0  0  0  0  0  0  0  0  0
  -15.1110    8.4113   24.2392 O   0  0  0  0  0  0  0  0  0  0  0  0
  -15.4192   10.4706   23.0792 C   0  0  0  0  0  0  0  0  0  0  0  0
  -16.7200   10.5540   23.3831 F   0  0  0  0  0  0  0  0  0  0  0  0
  -14.8924   11.3338   22.0899 C   0  0  0  0  0  0  0  0  0  0  0  0
  -11.6586   13.7681   20.0403 N   0  0  0  0  0  0  0  0  0  0  0  0
  -10.3965   14.2213   19.7741 C   0  0  0  0  0  0  0  0  0  0  0  0
   -9.2627   13.4580   19.8362 C   0  0  0  0  0  0  0  0  0  0  0  0
   -7.9619   13.9974   19.6745 N   0  0  0  0  0  0  0  0  0  0  0  0
   -7.7915   15.3776   19.1362 C   0  0  0  0  0  0  0  0  0  0  0  0
   -6.8366   13.2187   19.8475 C   0  0  0  0  0  0  0  0  0  0  0  0
   -5.7044   13.7094   19.8165 O   0  0  0  0  0  0  0  0  0  0  0  0
   -7.0737   11.6598   19.7894 C   0  0  0  0  0  0  0  0  0  0  0  0
   -5.8903   10.9633   20.4986 C   0  0  0  0  0  0  0  0  0  0  0  0
   -7.1312   11.2228   18.3298 C   0  0  0  0  0  0  0  0  0  0  0  0
  1  2  1  0
  2  3  1  0
  2  4  1  0
  4  5  1  0
  5  6  1  0
  6  7  1  0
  7  8  4  0
  8  9  4  0
  9 10  1  0
 10 11  1  0
 11 12  4  0
 12 13  4  0
 13 14  1  0
 13 15  4  0
 15 16  1  0
 15 17  4  0
 17 18  1  0
 17 19  4  0
  9 20  4  0
 20 21  4  0
 21 22  4  0
 22 23  1  0
 23 24  1  0
 23 25  1  0
 25 26  2  0
 25 27  1  0
 27 28  1  0
 27 29  1  0
 27  6  1  0
 22  7  4  0
 19 11  4  0
M  END
$$$$
