
     RDKit          3D

 48 50  0  0  0  0  0  0  0  0999 V2000
   24.0650   17.7307   19.3573 C   0  0  0  0  0  0  0  0  0  0  0  0
   24.1901   17.9599   17.8632 C   0  0  0  0  0  0  0  0  0  0  0  0
   24.0664   16.5611   17.1489 C   0  0  0  0  0  0  0  0  0  0  0  0
   23.0298   18.8222   17.3437 C   0  0  0  0  0  0  0  0  0  0  0  0
   23.3251   20.1896   17.6294 O   0  0  0  0  0  0  0  0  0  0  0  0
   22.0949   21.2643   17.4407 P   0  0  2  0  0  5  0  0  0  0  0  0
   20.9635   20.8078   16.6109 O   0  0  0  0  0  0  0  0  0  0  0  0
   22.8662   22.5578   16.8488 O   0  0  0  0  0  0  0  0  0  0  0  0
   21.8059   21.7065   18.9659 O   0  0  0  0  0  0  0  0  0  0  0  0
   20.6131   22.6602   19.4433 P   0  0  2  0  0  5  0  0  0  0  0  0
   19.2760   22.2587   18.8979 O   0  0  0  0  0  0  0  0  0  0  0  0
   21.1870   24.0969   18.9927 O   0  0  0  0  0  0  0  0  0  0  0  0
   20.7179   22.6763   21.0139 O   0  0  0  0  0  0  0  0  0  0  0  0
   21.7806   23.4301   21.6318 C   0  0  0  0  0  0  0  0  0  0  0  0
   21.3681   24.9083   21.4370 C   0  0  1  0  0  0  0  0  0  0  0  0
   22.3222   25.5423   20.5423 O   0  0  0  0  0  0  0  0  0  0  0  0
   21.8402   25.2143   19.1660 C   0  0  1  0  0  0  0  0  0  0  0  0
   22.4680   23.9087   18.7904 N   0  0  0  0  0  0  0  0  0  0  0  0
   22.2083   22.7193   19.5121 C   0  0  0  0  0  0  0  0  0  0  0  0
   23.0514   21.8105   19.0968 N   0  0  0  0  0  0  0  0  0  0  0  0
   24.0061   22.4636   18.3638 C   0  0  0  0  0  0  0  0  0  0  0  0
   25.2872   22.0872   17.9817 C   0  0  0  0  0  0  0  0  0  0  0  0
   25.7648   20.7929   18.0202 N   0  0  0  0  0  0  0  0  0  0  0  0
   26.1789   23.0849   17.6887 N   0  0  0  0  0  0  0  0  0  0  0  0
   25.7187   24.3412   17.6127 C   0  0  0  0  0  0  0  0  0  0  0  0
   24.4339   24.7892   17.7296 N   0  0  0  0  0  0  0  0  0  0  0  0
   23.6565   23.7863   18.1657 C   0  0  0  0  0  0  0  0  0  0  0  0
   20.3280   25.1191   19.2704 C   0  0  2  0  0  0  0  0  0  0  0  0
   19.6204   26.1350   18.5482 O   0  0  0  0  0  0  0  0  0  0  0  0
   20.0210   25.1021   20.7761 C   0  0  1  0  0  0  0  0  0  0  0  0
   19.2376   23.9807   21.1239 O   0  0  0  0  0  0  0  0  0  0  0  0
   18.1007   24.2643   22.2551 P   0  0  0  0  0  5  0  0  0  0  0  0
   16.7055   24.2328   21.7053 O   0  0  0  0  0  0  0  0  0  0  0  0
   18.4725   23.2268   23.4168 O   0  0  0  0  0  0  0  0  0  0  0  0
   18.5563   25.6929   22.8456 O   0  0  0  0  0  0  0  0  0  0  0  0
   25.5833   18.6022   17.4981 C   0  0  2  0  0  0  0  0  0  0  0  0
   25.4847   19.9504   16.9619 O   0  0  0  0  0  0  0  0  0  0  0  0
   26.4532   17.8189   16.4536 C   0  0  0  0  0  0  0  0  0  0  0  0
   26.2697   17.8493   15.2295 O   0  0  0  0  0  0  0  0  0  0  0  0
   27.1747   16.7522   17.0205 N   0  0  0  0  0  0  0  0  0  0  0  0
   28.0185   16.9776   18.2274 C   0  0  0  0  0  0  0  0  0  0  0  0
   28.9858   15.7793   18.3610 C   0  0  0  0  0  0  0  0  0  0  0  0
   29.9768   15.7298   17.2153 C   0  0  0  0  0  0  0  0  0  0  0  0
   29.5993   15.9130   16.0342 O   0  0  0  0  0  0  0  0  0  0  0  0
   31.1067   14.9875   17.5529 N   0  0  0  0  0  0  0  0  0  0  0  0
   32.4185   15.5552   17.3471 C   0  0  0  0  0  0  0  0  0  0  0  0
   33.4788   14.4431   17.3177 C   0  0  0  0  0  0  0  0  0  0  0  0
   34.8109   15.0408   17.3093 O   0  0  0  0  0  0  0  0  0  0  0  0
  1  2  1  0
  2  3  1  0
  2  4  1  0
  4  5  1  0
  5  6  1  0
  6  7  2  0
  6  8  1  1
  6  9  1  0
  9 10  1  0
 10 11  2  0
 10 12  1  6
 10 13  1  0
 13 14  1  0
 15 14  1  6
 15 16  1  0
 16 17  1  0
 17 18  1  1
 18 19  4  0
 19 20  4  0
 20 21  4  0
 21 22  4  0
 22 23  1  0
 22 24  4  0
 24 25  4  0
 25 26  4  0
 26 27  4  0
 17 28  1  0
 28 29  1  6
 28 30  1  0
 30 31  1  1
 31 32  1  0
 32 33  2  0
 32 34  1  0
 32 35  1  0
  2 36  1  0
 36 37  1  1
 36 38  1  0
 38 39  2  0
 38 40  1  0
 40 41  1  0
 41 42  1  0
 42 43  1  0
 43 44  2  0
 43 45  1  0
 45 46  1  0
 46 47  1  0
 47 48  1  0
 30 15  1  0
 27 18  4  0
 27 21  4  0
M  END
$$$$
