
     RDKit          3D

 37 41  0  0  0  0  0  0  0  0999 V2000
   -6.9571    8.1580  -18.2573 C   0  0  0  0  0  0  0  0  0  0  0  0
   -6.1385    6.9779  -17.7018 C   0  0  0  0  0  0  0  0  0  0  0  0
   -5.8126    5.8843  -18.5786 C   0  0  0  0  0  0  0  0  0  0  0  0
   -5.0473    4.7622  -18.0896 C   0  0  0  0  0  0  0  0  0  0  0  0
   -4.6090    4.7339  -16.7335 C   0  0  0  0  0  0  0  0  0  0  0  0
   -3.8645    3.6232  -16.2938 N   0  0  0  0  0  0  0  0  0  0  0  0
   -3.3497    3.3881  -15.0533 C   0  0  0  0  0  0  0  0  0  0  0  0
   -3.2566    4.2178  -14.1468 O   0  0  0  0  0  0  0  0  0  0  0  0
   -2.8636    2.0152  -14.7780 C   0  0  0  0  0  0  0  0  0  0  0  0
   -2.5563    1.5940  -13.4249 C   0  0  0  0  0  0  0  0  0  0  0  0
   -2.0848    0.2689  -13.1842 C   0  0  0  0  0  0  0  0  0  0  0  0
   -1.9211   -0.6377  -14.2991 C   0  0  0  0  0  0  0  0  0  0  0  0
   -1.4016   -2.0506  -14.1356 C   0  0  0  0  0  0  0  0  0  0  0  0
   -0.2603   -2.3658  -15.0082 N   0  0  0  0  0  0  0  0  0  0  0  0
    0.8919   -1.4428  -14.6939 C   0  0  0  0  0  0  0  0  0  0  0  0
    2.1163   -1.7338  -15.6016 C   0  0  0  0  0  0  0  0  0  0  0  0
    2.5116   -3.1902  -15.4716 N   0  0  0  0  0  0  0  0  0  0  0  0
    3.6851   -3.5315  -16.2983 C   0  0  0  0  0  0  0  0  0  0  0  0
    1.3484   -4.1099  -15.8439 C   0  0  0  0  0  0  0  0  0  0  0  0
    0.1567   -3.8239  -14.8933 C   0  0  0  0  0  0  0  0  0  0  0  0
   -2.2320   -0.2046  -15.6406 C   0  0  0  0  0  0  0  0  0  0  0  0
   -2.6982    1.0998  -15.8861 C   0  0  0  0  0  0  0  0  0  0  0  0
   -4.9426    5.8358  -15.8627 C   0  0  0  0  0  0  0  0  0  0  0  0
   -5.6803    6.9236  -16.3200 C   0  0  0  0  0  0  0  0  0  0  0  0
   -5.9749    7.9577  -15.4315 N   0  0  0  0  0  0  0  0  0  0  0  0
   -5.1586    9.0861  -15.3484 C   0  0  0  0  0  0  0  0  0  0  0  0
   -4.0224    9.2368  -16.1110 N   0  0  0  0  0  0  0  0  0  0  0  0
   -3.2445   10.3665  -16.0191 C   0  0  0  0  0  0  0  0  0  0  0  0
   -3.6065   11.4014  -15.1309 C   0  0  0  0  0  0  0  0  0  0  0  0
   -4.7986   11.2051  -14.3558 C   0  0  0  0  0  0  0  0  0  0  0  0
   -5.3128   12.2162  -13.3840 C   0  0  0  0  0  0  0  0  0  0  0  0
   -4.6047   13.4413  -13.0887 C   0  0  0  0  0  0  0  0  0  0  0  0
   -5.1423   14.3924  -12.1495 C   0  0  0  0  0  0  0  0  0  0  0  0
   -6.3923   14.0844  -11.5229 C   0  0  0  0  0  0  0  0  0  0  0  0
   -7.0696   12.8963  -11.8160 N   0  0  0  0  0  0  0  0  0  0  0  0
   -6.5643   11.9650  -12.7240 C   0  0  0  0  0  0  0  0  0  0  0  0
   -5.5240   10.0693  -14.4878 N   0  0  0  0  0  0  0  0  0  0  0  0
 33 32  2  0
 33 34  1  0
 32 31  1  0
 31 36  2  0
 31 30  1  0
 36 35  1  0
 35 34  2  0
 30 29  2  0
 30 37  1  0
 29 28  1  0
 28 27  2  0
 27 26  1  0
 26 37  2  0
 26 25  1  0
 25 24  1  0
 24  2  2  0
 24 23  1  0
  2  3  1  0
  2  1  1  0
  3  4  2  0
  4  5  1  0
  5 23  2  0
  5  6  1  0
  6  7  1  0
  7  9  1  0
  7  8  2  0
  9 10  2  0
  9 22  1  0
 10 11  1  0
 11 12  2  0
 12 21  1  0
 12 13  1  0
 21 22  2  0
 13 14  1  0
 14 15  1  0
 14 20  1  0
 15 16  1  0
 16 17  1  0
 17 18  1  0
 17 19  1  0
 19 20  1  0
M  END
$$$$
